3

O	-0.270933    1.491775    0.113380
H	-0.272002    2.121395   -0.617813
H	0.569863    0.977008    0.103903
3

O	1.430528   -0.500613   -0.082090
H	1.982314   -0.904380    0.597740
H	0.575123   -0.982646   -0.159749
3

O	-1.161340   -0.976924   -0.094020
H	-1.135674    0.006790   -0.040583
H	-1.705661   -1.332063    0.618343
