3

 O         2.750000        8.844000        9.629000
 H         2.110000        8.290000        9.998000
 H         2.164000        9.245000        8.962000
3

 O         1.661000        6.681000        1.943000
 H         1.943000        5.739000        1.981000
 H         0.778000        6.599000        1.483000
3

 O         4.618000        8.125000        7.777000
 H         5.405000        7.919000        8.314000
 H         4.002000        8.458000        8.422000
3

 O         3.403000        4.687000        9.815000
 H         3.109000        5.272000        9.097000
 H         3.817000        3.973000        9.327000
3

 O         2.710000        6.185000        7.540000
 H         2.467000        6.236000        6.561000
 H         3.410000        6.855000        7.580000
3

 O         3.320000        1.439000        3.693000
 H         3.018000        1.263000        2.795000
 H         4.218000        1.737000        3.533000
3

 O         4.539000        2.605000        8.295000
 H         5.460000        2.702000        8.123000
 H         4.434000        1.616000        8.363000
3

 O         4.654000        5.717000        5.023000
 H         5.059000        5.126000        4.395000
 H         5.409000        5.785000        5.634000
3

 O         3.686000        8.353000        3.401000
 H         4.494000        7.930000        3.084000
 H         3.041000        7.727000        3.197000
3

 O         5.450000        9.067000        5.337000
 H         4.722000        8.840000        4.711000
 H         4.939000        8.770000        6.117000
3

 O         2.421000        3.775000        5.058000
 H         2.684000        2.934000        4.652000
 H         3.219000        4.340000        5.048000
3

 O         5.141000        1.611000        0.499000
 H         4.697000        1.110000        1.234000
 H         6.031000        1.302000        0.586000
3

 O         5.461000        6.754000        1.943000
 H         6.412000        6.627000        2.018000
 H         5.209000        5.956000        1.434000
3

 O         7.314000        0.228000        9.152000
 H         7.447000        0.196000        8.157000
 H         8.219000        0.336000        9.426000
3

 O         7.529000        4.508000        1.396000
 H         8.313000        4.582000        0.857000
 H         6.783000        4.511000        0.768000
3

 O         7.881000        3.518000        5.700000
 H         8.550000        4.225000        5.812000
 H         7.070000        3.834000        6.169000
3

 O         9.016000        4.086000        8.814000
 H         9.377000        5.001000        8.813000
 H         8.726000        3.741000        9.661000
3

 O         6.439000        5.144000        7.455000
 H         7.310000        4.836000        7.837000
 H         6.121000        5.819000        8.116000
3

 O         6.255000        9.802000        0.364000
 H         6.954000        9.121000        0.671000
 H         5.459000        9.264000        0.196000
3

 O         6.140000        3.669000        3.704000
 H         6.732000        3.837000        2.949000
 H         6.807000        3.408000        4.378000
3

 O         0.688000        2.781000        7.114000
 H         1.488000        3.190000        6.703000
 H         0.053000        3.429000        6.930000
3

 O         0.449000        7.366000        9.140000
 H         0.202000        6.479000        9.095000
 H         0.796000        7.563000        8.256000
3

 O         2.278000        3.922000        1.200000
 H         2.701000        3.392000        0.560000
 H         1.556000        3.406000        1.415000
3

 O         3.438000        8.099000        0.316000
 H         2.547000        7.847000        0.577000
 H         3.889000        7.775000        1.093000
3

 O         1.314000        9.385000        7.173000
 H         1.333000        8.706000        6.444000
 H         2.056000        9.953000        6.980000
3

 O         7.572000        0.420000        3.478000
 H         7.636000        0.339000        2.503000
 H         6.628000        0.234000        3.530000
3

 O         1.133000        7.080000        5.078000
 H         1.201000        7.102000        4.137000
 H         0.358000        6.549000        5.302000
3

 O         8.578000        0.832000        6.351000
 H         7.928000        0.530000        5.693000
 H         8.563000        1.801000        6.335000
